JQ1
     RDKit          3D

 57 60  0  0  1  0  0  0  0  0999 V2000
   29.8990   18.9620    1.7240 C   0  0  0  0  0  0  0  0  0  0  0  0
   25.2040   15.1160    1.3930 C   0  0  0  0  0  0  0  0  0  0  0  0
   25.6820   14.9300   -1.6940 C   0  0  0  0  0  0  0  0  0  0  0  0
   29.2330   13.1180   -5.4650 C   0  0  0  0  0  0  0  0  0  0  0  0
   30.6490   11.1240   -4.6870 C   0  0  0  0  0  0  0  0  0  0  0  0
   28.5430   11.7420   -3.5100 C   0  0  0  0  0  0  0  0  0  0  0  0
   32.1090   13.8640   -4.7140 O   0  0  0  0  0  0  0  0  0  0  0  0
   24.8240   18.4760   -6.7700 Cl  0  0  0  0  0  0  0  0  0  0  0  0
   25.5320   17.9640   -4.2190 C   0  0  0  0  0  0  0  0  0  0  0  0
   27.0320   17.1100   -5.8680 C   0  0  0  0  0  0  0  0  0  0  0  0
   26.3510   17.4470   -3.2100 C   0  0  0  0  0  0  0  0  0  0  0  0
   27.8570   16.6090   -4.8670 C   0  0  0  0  0  0  0  0  0  0  0  0
   31.8980   14.9640   -2.5760 C   0  0  0  0  0  0  0  0  0  0  0  0
   29.6620   16.0420   -2.8280 N   0  0  0  0  0  0  0  0  0  0  0  0
   31.8170   18.1280    0.2830 N   0  0  0  0  0  0  0  0  0  0  0  0
   32.0440   17.2500   -0.6250 N   0  0  0  0  0  0  0  0  0  0  0  0
   30.4000   13.2470   -3.3840 O   0  0  0  0  0  0  0  0  0  0  0  0
   27.8100   16.3310    1.4560 S   0  0  0  0  0  0  0  0  0  0  0  0
   31.4750   13.9720   -3.6650 C   0  0  0  0  0  0  0  0  0  0  0  0
   28.3750   16.2200   -2.4890 C   0  0  0  0  0  0  0  0  0  0  0  0
   25.8800   17.8220   -5.5420 C   0  0  0  0  0  0  0  0  0  0  0  0
   30.5340   18.0500    0.6710 C   0  0  0  0  0  0  0  0  0  0  0  0
   27.5220   16.7650   -3.5120 C   0  0  0  0  0  0  0  0  0  0  0  0
   26.4600   15.6250    0.6460 C   0  0  0  0  0  0  0  0  0  0  0  0
   26.6960   15.5570   -0.7220 C   0  0  0  0  0  0  0  0  0  0  0  0
   30.8940   16.5810   -0.8330 C   0  0  0  0  0  0  0  0  0  0  0  0
   27.9310   16.1250   -1.1370 C   0  0  0  0  0  0  0  0  0  0  0  0
   28.6600   16.6020   -0.0300 C   0  0  0  0  0  0  0  0  0  0  0  0
   30.6460   15.4630   -1.8660 C   0  0  2  0  0  0  0  0  0  0  0  0
   29.9320   17.0880   -0.0610 N   0  0  0  0  0  0  0  0  0  0  0  0
   29.7310   12.3020   -4.2990 C   0  0  0  0  0  0  0  0  0  0  0  0
   30.1545   18.5950    2.7290 H   0  0  0  0  0  0  0  0  0  0  0  0
   30.2802   19.9863    1.5998 H   0  0  0  0  0  0  0  0  0  0  0  0
   28.8060   18.9599    1.5998 H   0  0  0  0  0  0  0  0  0  0  0  0
   25.3704   15.1834    2.4783 H   0  0  0  0  0  0  0  0  0  0  0  0
   24.3371   15.7338    1.1159 H   0  0  0  0  0  0  0  0  0  0  0  0
   25.0117   14.0690    1.1159 H   0  0  0  0  0  0  0  0  0  0  0  0
   24.8829   14.4359   -1.1219 H   0  0  0  0  0  0  0  0  0  0  0  0
   25.2466   15.7168   -2.3276 H   0  0  0  0  0  0  0  0  0  0  0  0
   26.1913   14.1890   -2.3276 H   0  0  0  0  0  0  0  0  0  0  0  0
   28.6941   14.0010   -5.0910 H   0  0  0  0  0  0  0  0  0  0  0  0
   30.0874   13.4420   -6.0773 H   0  0  0  0  0  0  0  0  0  0  0  0
   28.5541   12.5063   -6.0773 H   0  0  0  0  0  0  0  0  0  0  0  0
   31.0274   10.6384   -3.7754 H   0  0  0  0  0  0  0  0  0  0  0  0
   30.0786   10.3948   -5.2811 H   0  0  0  0  0  0  0  0  0  0  0  0
   31.4954   11.4990   -5.2811 H   0  0  0  0  0  0  0  0  0  0  0  0
   28.7418   11.8357   -2.4322 H   0  0  0  0  0  0  0  0  0  0  0  0
   27.6342   12.3065   -3.7657 H   0  0  0  0  0  0  0  0  0  0  0  0
   28.4001   10.6817   -3.7657 H   0  0  0  0  0  0  0  0  0  0  0  0
   24.6024   18.4882   -3.9524 H   0  0  0  0  0  0  0  0  0  0  0  0
   27.2907   16.9430   -6.9240 H   0  0  0  0  0  0  0  0  0  0  0  0
   26.0619   17.5833   -2.1574 H   0  0  0  0  0  0  0  0  0  0  0  0
   28.7841   16.0836   -5.1400 H   0  0  0  0  0  0  0  0  0  0  0  0
   32.5595   14.4629   -1.8540 H   0  0  0  0  0  0  0  0  0  0  0  0
   32.4395   15.8095   -3.0253 H   0  0  0  0  0  0  0  0  0  0  0  0
   32.9402   17.0871   -1.1058 H   0  0  0  0  0  0  0  0  0  0  0  0
   30.2740   14.5603   -1.3594 H   0  0  0  0  0  0  0  0  0  0  0  0
  1 22  1  0
  2 24  1  0
  3 25  1  0
  4 31  1  0
  5 31  1  0
  6 31  1  0
  7 19  2  0
  8 21  1  0
  9 11  2  0
  9 21  1  0
 10 12  1  0
 10 21  2  0
 11 23  1  0
 12 23  2  0
 13 19  1  0
 13 29  1  0
 14 20  2  0
 14 29  1  0
 15 16  1  0
 15 22  2  0
 16 26  1  0
 17 19  1  0
 17 31  1  0
 18 24  1  0
 18 28  1  0
 20 23  1  0
 20 27  1  0
 22 30  1  0
 24 25  2  0
 25 27  1  0
 26 29  1  0
 26 30  2  0
 27 28  2  0
 28 30  1  0
  1 32  1  0
  1 33  1  0
  1 34  1  0
  2 35  1  0
  2 36  1  0
  2 37  1  0
  3 38  1  0
  3 39  1  0
  3 40  1  0
  4 41  1  0
  4 42  1  0
  4 43  1  0
  5 44  1  0
  5 45  1  0
  5 46  1  0
  6 47  1  0
  6 48  1  0
  6 49  1  0
  9 50  1  0
 10 51  1  0
 11 52  1  0
 12 53  1  0
 13 54  1  0
 13 55  1  0
 16 56  1  0
 29 57  1  1
M  CHG  1  30   1
M  END
>  <model_server_result.job_id>  (1) 
76bE7i6DqVwOW7BER1zLvQ

>  <model_server_result.datetime_utc>  (1) 
2026-08-09 08:09:49

>  <model_server_result.server_version>  (1) 
0.9.13

>  <model_server_result.query_name>  (1) 
ligand

>  <model_server_result.source_id>  (1) 
pdb-bcif

>  <model_server_result.entry_id>  (1) 
3MXF

>  <model_server_params.name>  (1) 
atom_site

>  <model_server_params.value>  (1) 
{"auth_asym_id":"A","auth_seq_id":1}

>  <model_server_stats.io_time_ms>  (1) 
14

>  <model_server_stats.parse_time_ms>  (1) 
7

>  <model_server_stats.create_model_time_ms>  (1) 
3

>  <model_server_stats.query_time_ms>  (1) 
292

>  <model_server_stats.encode_time_ms>  (1) 
0

>  <model_server_stats.element_count>  (1) 
31

$$$$
