09L
     RDKit          3D

 55 59  0  0  0  0  0  0  0  0999 V2000
  -11.6220   -1.7470   25.5440 C   0  0  0  0  0  0  0  0  0  0  0  0
  -12.5320   -0.5810   25.4470 C   0  0  0  0  0  0  0  0  0  0  0  0
  -11.0580   -0.3570   25.6770 C   0  0  0  0  0  0  0  0  0  0  0  0
  -10.6580    0.1180   27.0610 C   0  0  0  0  0  0  0  0  0  0  0  0
  -11.2840   -0.2360   28.0460 O   0  0  0  0  0  0  0  0  0  0  0  0
   -9.6170    0.9790   27.1640 N   0  0  0  0  0  0  0  0  0  0  0  0
   -9.2970    1.6390   28.4270 C   0  0  0  0  0  0  0  0  0  0  0  0
   -9.8670    3.0300   28.3940 C   0  0  0  0  0  0  0  0  0  0  0  0
   -8.8690    1.6380   26.0870 C   0  0  0  0  0  0  0  0  0  0  0  0
   -9.3540    3.0710   25.9470 C   0  0  0  0  0  0  0  0  0  0  0  0
   -9.3210    3.7680   27.2470 N   0  0  0  0  0  0  0  0  0  0  0  0
   -8.9100    5.0410   27.4240 C   0  0  0  0  0  0  0  0  0  0  0  0
   -8.9050    5.5750   28.5140 O   0  0  0  0  0  0  0  0  0  0  0  0
   -8.2990    5.7600   26.2590 C   0  0  0  0  0  0  0  0  0  0  0  0
   -8.9800    6.8500   25.7080 C   0  0  0  0  0  0  0  0  0  0  0  0
   -7.0580    5.4470   25.7210 C   0  0  0  0  0  0  0  0  0  0  0  0
   -6.3820    4.3740   26.1970 F   0  0  0  0  0  0  0  0  0  0  0  0
   -6.4780    6.1800   24.7160 C   0  0  0  0  0  0  0  0  0  0  0  0
   -7.1750    7.2490   24.1860 C   0  0  0  0  0  0  0  0  0  0  0  0
   -8.4410    7.5780   24.6500 C   0  0  0  0  0  0  0  0  0  0  0  0
   -9.2070    8.7260   24.0450 C   0  0  0  0  0  0  0  0  0  0  0  0
   -9.7790    9.6350   25.1060 C   0  0  0  0  0  0  0  0  0  0  0  0
   -8.9200   10.6000   25.8280 C   0  0  0  0  0  0  0  0  0  0  0  0
   -7.5700   10.7930   25.5100 C   0  0  0  0  0  0  0  0  0  0  0  0
   -6.8110   11.6790   26.2650 C   0  0  0  0  0  0  0  0  0  0  0  0
   -7.4150   12.4640   27.2390 C   0  0  0  0  0  0  0  0  0  0  0  0
   -8.7900   12.4040   27.4380 C   0  0  0  0  0  0  0  0  0  0  0  0
   -9.5410   11.4250   26.7830 C   0  0  0  0  0  0  0  0  0  0  0  0
  -10.9860   11.2680   27.0350 C   0  0  0  0  0  0  0  0  0  0  0  0
  -11.6210   11.9200   27.8540 O   0  0  0  0  0  0  0  0  0  0  0  0
  -11.6010   10.3190   26.3020 N   0  0  0  0  0  0  0  0  0  0  0  0
  -11.0470    9.5400   25.3100 N   0  0  0  0  0  0  0  0  0  0  0  0
  -11.4001   -2.3453   24.6480 H   0  0  0  0  0  0  0  0  0  0  0  0
  -11.5926   -2.6567   26.1618 H   0  0  0  0  0  0  0  0  0  0  0  0
  -12.9829   -0.3158   24.4793 H   0  0  0  0  0  0  0  0  0  0  0  0
  -13.4528   -0.2714   25.9630 H   0  0  0  0  0  0  0  0  0  0  0  0
  -10.2530    0.2042   25.1800 H   0  0  0  0  0  0  0  0  0  0  0  0
   -9.7389    1.0763   29.2625 H   0  0  0  0  0  0  0  0  0  0  0  0
   -8.2066    1.6808   28.5657 H   0  0  0  0  0  0  0  0  0  0  0  0
  -10.9618    2.9733   28.3033 H   0  0  0  0  0  0  0  0  0  0  0  0
   -9.5970    3.5537   29.3229 H   0  0  0  0  0  0  0  0  0  0  0  0
   -7.7959    1.6346   26.3288 H   0  0  0  0  0  0  0  0  0  0  0  0
   -9.0299    1.0991   25.1416 H   0  0  0  0  0  0  0  0  0  0  0  0
   -8.7043    3.6032   25.2366 H   0  0  0  0  0  0  0  0  0  0  0  0
  -10.3918    3.0565   25.5825 H   0  0  0  0  0  0  0  0  0  0  0  0
   -9.9595    7.1378   26.1177 H   0  0  0  0  0  0  0  0  0  0  0  0
   -5.4773    5.9214   24.3396 H   0  0  0  0  0  0  0  0  0  0  0  0
   -6.7195    7.8484   23.3840 H   0  0  0  0  0  0  0  0  0  0  0  0
   -8.5291    9.3086   23.4038 H   0  0  0  0  0  0  0  0  0  0  0  0
  -10.0421    8.3118   23.4611 H   0  0  0  0  0  0  0  0  0  0  0  0
   -7.1144   10.2481   24.6700 H   0  0  0  0  0  0  0  0  0  0  0  0
   -5.7278   11.7590   26.0907 H   0  0  0  0  0  0  0  0  0  0  0  0
   -6.8020   13.1370   27.8565 H   0  0  0  0  0  0  0  0  0  0  0  0
   -9.2837   13.1236   28.1076 H   0  0  0  0  0  0  0  0  0  0  0  0
  -12.5976   10.1580   26.5065 H   0  0  0  0  0  0  0  0  0  0  0  0
  1  3  1  0
  1  2  1  0
  2  3  1  0
  3  4  1  0
  4  6  1  0
  4  5  2  0
  6  7  1  0
  6  9  1  0
  7  8  1  0
  8 11  1  0
  9 10  1  0
 10 11  1  0
 11 12  1  0
 12 13  2  0
 12 14  1  0
 14 15  1  0
 14 16  2  0
 15 20  2  0
 16 18  1  0
 16 17  1  0
 18 19  2  0
 19 20  1  0
 20 21  1  0
 21 22  1  0
 22 23  1  0
 22 32  2  0
 23 28  1  0
 23 24  2  0
 24 25  1  0
 25 26  2  0
 26 27  1  0
 27 28  2  0
 28 29  1  0
 29 30  2  0
 29 31  1  0
 31 32  1  0
  1 33  1  0
  1 34  1  0
  2 35  1  0
  2 36  1  0
  3 37  1  0
  7 38  1  0
  7 39  1  0
  8 40  1  0
  8 41  1  0
  9 42  1  0
  9 43  1  0
 10 44  1  0
 10 45  1  0
 15 46  1  0
 18 47  1  0
 19 48  1  0
 21 49  1  0
 21 50  1  0
 24 51  1  0
 25 52  1  0
 26 53  1  0
 27 54  1  0
 31 55  1  0
M  END
>  <model_server_result.job_id>  (1) 
_c1cZDwvz1Vs0nVZwcYjTw

>  <model_server_result.datetime_utc>  (1) 
2026-08-09 08:09:48

>  <model_server_result.server_version>  (1) 
0.9.13

>  <model_server_result.query_name>  (1) 
ligand

>  <model_server_result.source_id>  (1) 
pdb-bcif

>  <model_server_result.entry_id>  (1) 
7KK4

>  <model_server_params.name>  (1) 
atom_site

>  <model_server_params.value>  (1) 
{"auth_asym_id":"A","auth_seq_id":9001}

>  <model_server_stats.io_time_ms>  (1) 
17

>  <model_server_stats.parse_time_ms>  (1) 
13

>  <model_server_stats.create_model_time_ms>  (1) 
14

>  <model_server_stats.query_time_ms>  (1) 
332

>  <model_server_stats.encode_time_ms>  (1) 
0

>  <model_server_stats.element_count>  (1) 
32

$$$$
