AXI
  CCTOOLS-0919241030

 46 49  0  0  0  0  0  0  0  0999 V2000
    5.5440   -1.2580   -0.9720 O   0  0  0  0  0
    5.9740   -0.2330   -0.4770 C   0  0  0  0  0
    7.3020   -0.0100   -0.4380 N   0  0  0  0  0
    8.2280   -1.0020   -0.9890 C   0  0  0  0  0
    5.0410    0.7670    0.0720 C   0  0  0  0  0
    5.5300    1.9460    0.6410 C   0  0  0  0  0
    4.6540    2.8770    1.1530 C   0  0  0  0  0
    3.2870    2.6520    1.1080 C   0  0  0  0  0
    3.6560    0.5450    0.0230 C   0  0  0  0  0
    2.7880    1.4940    0.5500 C   0  0  0  0  0
    3.0210   -0.9330   -0.6980 S   0  0  0  0  0
    1.2930   -0.8230   -0.3700 C   0  0  0  0  0
    0.4370   -0.2900   -1.3360 C   0  0  0  0  0
   -0.9030   -0.1980   -1.0980 C   0  0  0  0  0
    0.7940   -1.2710    0.8400 C   0  0  0  0  0
   -0.5720   -1.1840    1.0960 C   0  0  0  0  0
   -1.3560   -1.5300    2.1670 N   0  0  0  0  0
   -2.6900   -1.2160    1.8860 N   0  0  0  0  0
   -2.7810   -0.6870    0.6860 C   0  0  0  0  0
   -1.4260   -0.6400    0.1190 C   0  0  0  0  0
   -4.0150   -0.2270    0.0300 C   0  0  0  0  0
   -5.1940   -0.3290    0.6680 C   0  0  0  0  0
   -6.4290    0.1310    0.0110 C   0  0  0  0  0
   -6.3720    0.6480   -1.2130 N   0  0  0  0  0
   -7.4540    1.0710   -1.8340 C   0  0  0  0  0
   -8.6960    0.9930   -1.2310 C   0  0  0  0  0
   -8.8020    0.4600    0.0480 C   0  0  0  0  0
   -7.6530    0.0170    0.6760 C   0  0  0  0  0
    7.6450    0.8070   -0.0430 H   0  0  0  0  0
    8.1040   -1.9480   -0.4620 H   0  0  0  0  0
    8.0170   -1.1460   -2.0490 H   0  0  0  0  0
    9.2530   -0.6500   -0.8680 H   0  0  0  0  0
    6.5950    2.1270    0.6790 H   0  0  0  0  0
    5.0340    3.7880    1.5930 H   0  0  0  0  0
    2.6080    3.3890    1.5120 H   0  0  0  0  0
    1.7210    1.3260    0.5200 H   0  0  0  0  0
    0.8390    0.0520   -2.2780 H   0  0  0  0  0
    1.4590   -1.6860    1.5820 H   0  0  0  0  0
   -1.5580    0.2160   -1.8500 H   0  0  0  0  0
   -3.9730    0.1930   -0.9640 H   0  0  0  0  0
   -5.2350   -0.7500    1.6610 H   0  0  0  0  0
   -7.7000   -0.4060    1.6680 H   0  0  0  0  0
   -7.3700    1.4850   -2.8280 H   0  0  0  0  0
   -9.5760    1.3440   -1.7490 H   0  0  0  0  0
   -9.7610    0.3900    0.5380 H   0  0  0  0  0
   -1.0360   -1.9300    2.9910 H   0  0  0  0  0
  1  2  2  0  0  0
  2  3  1  0  0  0
  2  5  1  0  0  0
  3  4  1  0  0  0
  3 29  1  0  0  0
  4 30  1  0  0  0
  4 31  1  0  0  0
  4 32  1  0  0  0
  5  6  1  0  0  0
  5  9  2  0  0  0
  6  7  2  0  0  0
  6 33  1  0  0  0
  7  8  1  0  0  0
  7 34  1  0  0  0
  8 10  2  0  0  0
  8 35  1  0  0  0
  9 10  1  0  0  0
  9 11  1  0  0  0
 10 36  1  0  0  0
 11 12  1  0  0  0
 12 13  1  0  0  0
 12 15  2  0  0  0
 13 14  2  0  0  0
 13 37  1  0  0  0
 14 20  1  0  0  0
 14 39  1  0  0  0
 15 16  1  0  0  0
 15 38  1  0  0  0
 16 17  1  0  0  0
 16 20  2  0  0  0
 17 18  1  0  0  0
 17 46  1  0  0  0
 18 19  2  0  0  0
 19 20  1  0  0  0
 19 21  1  0  0  0
 21 22  2  0  0  0
 21 40  1  0  0  0
 22 23  1  0  0  0
 22 41  1  0  0  0
 23 24  2  0  0  0
 23 28  1  0  0  0
 24 25  1  0  0  0
 25 26  2  0  0  0
 25 43  1  0  0  0
 26 27  1  0  0  0
 26 44  1  0  0  0
 27 28  2  0  0  0
 27 45  1  0  0  0
 28 42  1  0  0  0
M  END
$$$$
